LTspice 24.0.9 for Windows
Circuit: * D:\Studia\Semestr_6\Energo\1-kamien\Draft1.asc
Start Time: Mon Mar 18 19:28:54 2024
solver = Normal
Maximum thread count: 8
tnom = 27
temp = 27
method = modified trap
Limiting rise time of source v2 to 5e-07
Limiting fall time of source v2 to 5e-07
Limiting rise time of source v3 to 5e-07
Limiting fall time of source v3 to 5e-07
Limiting rise time of source v4 to 5e-07
Limiting fall time of source v4 to 5e-07
Limiting rise time of source v5 to 5e-07
Limiting fall time of source v5 to 5e-07
.OP point found by inspection.
Heightened Def Con from 0.00222526 to 0.00222526
Total elapsed time: 3.492 seconds.

